.MODEL IRFP9240 PMOS LEVEL=3
+ VTO=-3.828
+ KP=10.65U
+ UO=300
+ RD=0.2793
+ RS=0.7683
+ IS=2.08P
+ CBD=1.534N
+ CGSO=961.9P
+ CGDO=138.4P